
**** 01/15/26 22:59:16 **** PSpice 23.1.0 (30 January 2024) *** ID# 0 ********

 ** Profile: "Basic Flyback-transient"  [ C:\Users\dylan\nixie-clock\Simulation\flyback\flyback-pspicefiles\basic flyback\transient.s


 ****     CIRCUIT DESCRIPTION


******************************************************************************




** Creating circuit file "transient.cir" 
** WARNING: THIS AUTOMATICALLY GENERATED FILE MAY BE OVERWRITTEN BY SUBSEQUENT SIMULATIONS

*Libraries: 
* Profile Libraries :
* Local Libraries :
.LIB "../../../dmt6030lfcl.lib" 
* From [PSPICE NETLIST] section of C:\cds_spb_home\cdssetup\OrCAD_PSpiceTIPSpice_Install\23.1.0\PSpice.ini file:
.lib "nom_pspti.lib" 
.lib "nom.lib" 

*Analysis directives: 
.TRAN  0 30m 0 
.OPTIONS ADVCONV
.OPTIONS FILEMODELSEARCH
.OPTIONS THREADS= 1
.PROBE64 V(alias(*)) I(alias(*)) W(alias(*)) D(alias(*)) NOISE(alias(*)) 
.INC "..\Basic Flyback.net" 



**** INCLUDING "Basic Flyback.net" ****
* source FLYBACK
L_L1         N15373 N14585  2.34u  
L_L2         0 N15537  150u  
Kn_K1         L_L1 L_L2     1
V_V1         N18048 0 5Vdc
C_C1         0 N14510  1u  TC=0,0 
D_D1         N15460 N14510 Dbreak 
V_V2         N14849 0  
+PULSE 0 5 0 10n 10n 1.64u 4u
R_R1         0 N14510  9k TC=0,0 
R_R2         N15373 N15366  0.013 TC=0,0 
R_R3         N15537 N15460  0.818 TC=0,0 
C_C2         0 N15366  10u  TC=0,0 
R_R4         N15366 N18048  10m TC=0,0 
R_R5         N18352 N14849  1 TC=0,0 
X_U1         N14585 N18352 0 DMT6030LFCL

**** RESUMING transient.cir ****
.END

**** 01/15/26 22:59:16 **** PSpice 23.1.0 (30 January 2024) *** ID# 0 ********

 ** Profile: "Basic Flyback-transient"  [ C:\Users\dylan\nixie-clock\Simulation\flyback\flyback-pspicefiles\basic flyback\transient.s


 ****     Diode MODEL PARAMETERS


******************************************************************************




               X_U1.DCGD       X_U1.DSUB       X_U1.DLIM       
          IS   10.000000E-15    1.650000E-09  100.000000E-06 
           N                    1.33                         
          BV                   64.03                         
          RS                    7.661000E-03                 
         CJO  150.200000E-12  300.000000E-12                 
          VJ     .8              .9                          
           M     .7595           .3                          
         XTI                    0                            


**** 01/15/26 22:59:16 **** PSpice 23.1.0 (30 January 2024) *** ID# 0 ********

 ** Profile: "Basic Flyback-transient"  [ C:\Users\dylan\nixie-clock\Simulation\flyback\flyback-pspicefiles\basic flyback\transient.s


 ****     MOSFET MODEL PARAMETERS


******************************************************************************




               X_U1.NMOS       
               NMOS            
       LEVEL    3            
           L  100.000000E-06 
           W  100.000000E-06 
         VTO    1.812        
          KP   29            
       GAMMA     .527625     
         PHI     .576325     
      LAMBDA    0            
          IS    0            
          JS    0            
          PB     .8          
        PBSW     .8          
          CJ  101.851000E-06 
        CJSW    0            
        CGSO    0            
        CGDO    0            
        CGBO    0            
        NSUB    1.000000E+15 
         TOX  100.000000E-09 
          XJ    0            
       UCRIT   10.000000E+03 
        VMAX  100.000000E+03 
         ETA    0            
      DIOMOD    1            
         VFB    0            
        LETA    0            
        WETA    0            
          U0  400            
        TEMP    0            
         VDD    5            
       XPART    0            


INFO(ORPSIM-16627): The following imported models were detected in the design: X_U1.DCGD(dmt6030lfcl.lib), X_U1.DLIM(dmt6030lfcl.lib), X_U1.DSUB(dmt6030lfcl.lib), X_U1.NMOS(dmt6030lfcl.lib)

ERROR(ORPSIM-16583): More than one imported model containing transistors or diodes is detected. To simulate this circuit, a minimum of 1 and a maximum of 4 traces are required. Reduce the number of traces and simulate again.


ABORTING SIMULATION
**** 01/15/26 22:59:16 **** PSpice 23.1.0 (30 January 2024) *** ID# 0 ********

 ** Profile: "Basic Flyback-transient"  [ C:\Users\dylan\nixie-clock\Simulation\flyback\flyback-pspicefiles\basic flyback\transient.s


 ****     JOB STATISTICS SUMMARY


******************************************************************************



Node counts:
  Top level (NUNODS)                =          10
  External (NCNODS)                 =          17
  Total (NUMNOD)                    =          19

Total device count (NUMEL)          =          31
  Capacitors (C)                    =           4
  Diodes (D)                        =           5
  VCVS (E)                          =           1
  CCCS (F)                          =           1
  Couplings (K)                     =           2
  Inductors (L)                     =           2
  MosFETs (M)                       =           1
  Resistors (R)                     =          10
  Voltage Sources (V)               =           3

Number of subcircuits (X)           =           1

Matrix statistics:
  Matrix size (NSTOP)               =          25
  Initial no. elements (NTTAR)      =          74
  No. elements w/ fillin (NTTBR)    =          74
  No. fillins (IFILL)               =           0
  No. overflows (NTTOV)             =           0
  No. LU operations (IOPS)          =           0
  Percent sparsity (PERSPA)         =      88.160

Analysis statistics:
  No. total time points (NUMTTP)    =           0
  No. rejected time points (NUMRTP) =           0
  No. iterations (NUMNIT)           =           0

Load Threads                        =           1

Runtime statistics:                       Seconds      Iterations
  Matrix load                       =        0.00
  Matrix solution                   =        0.00               1
  Readin                            =         .16
  General setup                     =         .02
  CMI setup                     =        0.00
  Setup                             =        0.00
  DC sweep                          =        0.00               0
  Bias point                        =        0.00               0
  AC and noise                      =        0.00               0
  Total transient analysis          =        0.00
  Output                            =        0.00
  Overhead                          =         .03
  Total job time (using Solver 1)   =         .17
