
**** 01/17/26 18:56:28 **** PSpice 23.1.0 (30 January 2024) *** ID# 0 ********

 ** Profile: "Basic Flyback-TPS40210"  [ c:\users\dylan\nixie-clock\simulation\flyback\flyback-PSpiceFiles\Basic Flyback\TPS40210.sim


 ****     CIRCUIT DESCRIPTION


******************************************************************************




** Creating circuit file "TPS40210.cir" 
** WARNING: THIS AUTOMATICALLY GENERATED FILE MAY BE OVERWRITTEN BY SUBSEQUENT SIMULATIONS

*Libraries: 
* Profile Libraries :
* Local Libraries :
.LIB "../../../SBR1U400P1.spice.lib" 
.LIB "../../../p_se50paj.lib" 
.LIB "../../../dmt6030lfcl.lib" 
* From [PSPICE NETLIST] section of C:\cds_spb_home\cdssetup\OrCAD_PSpiceTIPSpice_Install\23.1.0\PSpice.ini file:
.lib "nom_pspti.lib" 
.lib "nom.lib" 

*Analysis directives: 
.TRAN  0 10m 0 
.OPTIONS ADVCONV
.OPTIONS FILEMODELSEARCH
.OPTIONS THREADS= 1
.PROBE64 V(alias(*)) I(alias(*)) W(alias(*)) D(alias(*)) NOISE(alias(*)) 
.INC "..\Basic Flyback.net" 



**** INCLUDING "Basic Flyback.net" ****
* source FLYBACK
L_L1         N15373 N14585  2.34u  
L_L2         0 N15537  150u  
Kn_K1         L_L1 L_L2     1
V_V1         N18048 0 5Vdc
C_C1         0 N14512  100n  TC=0,0 
V_V2         N14849 0  
+PULSE 0 5 0 10n 10n 1.64u 4u
R_R1         0 N14512  9k TC=0,0 
R_R2         N15373 N17933  0.013 TC=0,0 
R_R3         N15537 N21940  0.818 TC=0,0 
C_C2         0 N17933  10u  TC=0,0 
R_R4         N17933 N18048  10m TC=0,0 
R_R5         N18352 N14849  1 TC=0,0 
X_U1         N14585 N18352 0 DMT6030LFCL
D_D1         N21270 N14512 SBR1U400P1 
C_C3         N14512 N21266  30p  TC=0,0 
R_R6         N21266 N21270  800 TC=0,0 
D_D2         N14585 N21671 BAS70 
X_D3         N17933 N21671 Zener_parameterized PARAMS: VZT=25 RSF=100m
L_L3         N21940 N21270  6u  

**** RESUMING TPS40210.cir ****
.END

**** 01/17/26 18:56:28 **** PSpice 23.1.0 (30 January 2024) *** ID# 0 ********

 ** Profile: "Basic Flyback-TPS40210"  [ c:\users\dylan\nixie-clock\simulation\flyback\flyback-PSpiceFiles\Basic Flyback\TPS40210.sim


 ****     Diode MODEL PARAMETERS


******************************************************************************




               SBR1U400P1      X_U1.DCGD       X_U1.DSUB       X_U1.DLIM       
          IS   70.000000E-09   10.000000E-15    1.650000E-09  100.000000E-06 
           N    1.25                            1.33                         
         ISR   20.000000E-09                                                 
         IKF  510.000000E-06                                                 
          BV  401                              64.03                         
         IBV   50.000000E-06                                                 
          RS     .05                            7.661000E-03                 
          TT   85.000000E-09                                                 
         CJO   65.000000E-12  150.200000E-12  300.000000E-12                 
          VJ     .41             .8              .9                          
           M     .41             .7595           .3                          
          EG     .75                                                         
         XTI                                    0                            
        TIKF     .1                                                          


**** 01/17/26 18:56:28 **** PSpice 23.1.0 (30 January 2024) *** ID# 0 ********

 ** Profile: "Basic Flyback-TPS40210"  [ c:\users\dylan\nixie-clock\simulation\flyback\flyback-PSpiceFiles\Basic Flyback\TPS40210.sim


 ****     MOSFET MODEL PARAMETERS


******************************************************************************




               X_U1.NMOS       
               NMOS            
       LEVEL    3            
           L  100.000000E-06 
           W  100.000000E-06 
         VTO    1.812        
          KP   29            
       GAMMA     .527625     
         PHI     .576325     
      LAMBDA    0            
          IS    0            
          JS    0            
          PB     .8          
        PBSW     .8          
          CJ  101.851000E-06 
        CJSW    0            
        CGSO    0            
        CGDO    0            
        CGBO    0            
        NSUB    1.000000E+15 
         TOX  100.000000E-09 
          XJ    0            
       UCRIT   10.000000E+03 
        VMAX  100.000000E+03 
         ETA    0            
      DIOMOD    1            
         VFB    0            
        LETA    0            
        WETA    0            
          U0  400            
        TEMP    0            
         VDD    5            
       XPART    0            


INFO(ORPSIM-16627): The following imported models were detected in the design: SBR1U400P1(SBR1U400P1.spice.lib), X_U1.DCGD(dmt6030lfcl.lib), X_U1.DLIM(dmt6030lfcl.lib), X_U1.DSUB(dmt6030lfcl.lib), X_U1.NMOS(dmt6030lfcl.lib)

ERROR(ORPSIM-16583): More than one imported model containing transistors or diodes is detected. To simulate this circuit, a minimum of 1 and a maximum of 4 traces are required. Reduce the number of traces and simulate again.


ABORTING SIMULATION
**** 01/17/26 18:56:28 **** PSpice 23.1.0 (30 January 2024) *** ID# 0 ********

 ** Profile: "Basic Flyback-TPS40210"  [ c:\users\dylan\nixie-clock\simulation\flyback\flyback-PSpiceFiles\Basic Flyback\TPS40210.sim


 ****     JOB STATISTICS SUMMARY


******************************************************************************



Node counts:
  Top level (NUNODS)                =          13
  External (NCNODS)                 =          23
  Total (NUMNOD)                    =          27

Total device count (NUMEL)          =          36
  Capacitors (C)                    =           5
  Diodes (D)                        =           6
  VCVS (E)                          =           1
  CCCS (F)                          =           1
  Current Sources (I)               =           0
  Couplings (K)                     =           2
  Inductors (L)                     =           3
  MosFETs (M)                       =           1
  Resistors (R)                     =          11
  Voltage Sources (V)               =           3

Number of subcircuits (X)           =           2

Matrix statistics:
  Matrix size (NSTOP)               =          35
  Initial no. elements (NTTAR)      =         110
  No. elements w/ fillin (NTTBR)    =         110
  No. fillins (IFILL)               =           0
  No. overflows (NTTOV)             =           0
  No. LU operations (IOPS)          =           0
  Percent sparsity (PERSPA)         =      91.020

Analysis statistics:
  No. total time points (NUMTTP)    =           0
  No. rejected time points (NUMRTP) =           0
  No. iterations (NUMNIT)           =           0

Load Threads                        =           1

Runtime statistics:                       Seconds      Iterations
  Matrix load                       =        0.00
  Matrix solution                   =        0.00               1
  Readin                            =         .16
  General setup                     =        2.88
  CMI setup                     =        0.00
  Setup                             =        0.00
  DC sweep                          =        0.00               0
  Bias point                        =        0.00               0
  AC and noise                      =        0.00               0
  Total transient analysis          =        0.00
  Output                            =        0.00
  Overhead                          =         .05
  Total job time (using Solver 1)   =        3.25
